#generated using pymatgen
data_Li2CoO3
_symmetry_space_group_name_H-M   'P 1'
_cell_length_a   4.89381766
_cell_length_b   4.91415881
_cell_length_c   9.64860889
_cell_angle_alpha   84.99669299
_cell_angle_beta   79.91253450
_cell_angle_gamma   60.13682960
_symmetry_Int_Tables_number   1
_chemical_formula_structural   Li2CoO3
_chemical_formula_sum   'Li8 Co4 O12'
_cell_volume   198.117797146
_cell_formula_units_Z   4
loop_
 _symmetry_equiv_pos_site_id
 _symmetry_equiv_pos_as_xyz
  1  'x, y, z'
loop_
 _atom_site_type_symbol
 _atom_site_label
 _atom_site_symmetry_multiplicity
 _atom_site_fract_x
 _atom_site_fract_y
 _atom_site_fract_z
 _atom_site_occupancy
  Li  Li1  1  0.163510  0.161697  0.000708  1
  Li  Li2  1  0.325208  0.838303  0.500708  1
  Li  Li3  1  0.000000  0.500000  0.500000  1
  Li  Li4  1  0.082160  0.835681  0.250000  1
  Li  Li5  1  0.917840  0.164319  0.750000  1
  Li  Li6  1  0.674792  0.161697  0.499292  1
  Li  Li7  1  0.500000  0.500000  -0.000000  1
  Li  Li8  1  0.836490  0.838303  0.999292  1
  Co  Co9  1  0.416056  0.167888  0.250000  1
  Co  Co10  1  0.747278  0.505443  0.250000  1
  Co  Co11  1  0.583944  0.832112  0.750000  1
  Co  Co12  1  0.252722  0.494557  0.750000  1
  O  O13  1  0.045011  0.190851  0.364033  1
  O  O14  1  0.120389  0.470089  0.139606  1
  O  O15  1  0.235862  0.809149  0.864033  1
  O  O16  1  0.482222  0.833700  0.139280  1
  O  O17  1  0.590478  0.529911  0.639606  1
  O  O18  1  0.315922  0.166300  0.639280  1
  O  O19  1  0.684078  0.833700  0.360720  1
  O  O20  1  0.409522  0.470089  0.360394  1
  O  O21  1  0.517778  0.166300  0.860720  1
  O  O22  1  0.764138  0.190851  0.135967  1
  O  O23  1  0.879611  0.529911  0.860394  1
  O  O24  1  0.954989  0.809149  0.635967  1
